Circuit: * C:\Users\shann\Dropbox\moog\twangilizer\docs\spice\clip_detector2.asc

WARNING: Less than two connections to node +9.  This node is used by V3.
WARNING: Less than two connections to node -9.  This node is used by V4.
Direct Newton iteration failed to find .op point.  (Use ".option noopiter" to skip.)
Starting Gmin stepping
Gmin = 10
Gmin = 1.07374
vernier = 0.5
vernier = 0.25
vernier = 0.125
vernier = 0.0625
Gmin = 1.08884
vernier = 0.03125
vernier = 0.015625
Gmin = 1.03122
vernier = 0.0078125
vernier = 0.00390625
Gmin = 1.01922
vernier = 0.00520833
vernier = 0.00260417
Gmin = 1.01294
vernier = 0.00347222
vernier = 0.00173611
vernier = 0.00231481
vernier = 0.00115741
Gmin = 1.01045
vernier = 0.00154321
vernier = 0.000771604
Gmin = 1.00831
vernier = 0.00102881
vernier = 0.000514403
Gmin = 1.00689
vernier = 0.00068587
vernier = 0.000514403
Gmin = 1.00568
vernier = 0.00068587
vernier = 0.000514402
Gmin = 0
Gmin stepping failed

Starting source stepping with srcstepmethod=0
Source Step = 3.0303%
Source Step = 13.0682%
Source Step = 14.9621%
Source Step = 16.8561%
Source Step = 18.75%
Source Step = 20.6439%
vernier = 0.09375
Source Step = 22.9167%
Source Step = 25.7576%
Source Step = 28.5985%
Source Step = 31.4394%
Source Step = 34.2803%
vernier = 0.140625
Source Step = 37.5473%
Source Step = 41.8087%
Source Step = 46.0701%
Source Step = 50.3314%
Source Step = 54.5928%
vernier = 0.210938
Source Step = 59.2803%
Source Step = 65.6723%
Source Step = 72.0644%
Source Step = 78.4564%
Source Step = 84.8485%
vernier = 0.316406
Source Step = 91.5601%
Source stepping succeeded in finding the operating point.


Date: Fri May 31 23:36:10 2024
Total elapsed time: 1.293 seconds.

tnom = 27
temp = 27
method = modified trap
totiter = 162362
traniter = 155182
tranpoints = 42614
accept = 30771
rejected = 11843
matrix size = 30
fillins = 27
solver = Normal
Thread vector: 8.4/4.4[2] 2.2/3.1[1] 1.6/8.1[1] 0.1/0.9[1]  2592/500
Matrix Compiler1: 2.52 KB object code size  0.9/0.7/[0.2]
Matrix Compiler2: 3.00 KB object code size  0.4/0.4/[0.3]

