Circuit: * C:\Users\shann\Dropbox\moog\twangilizer\docs\spice\Draft1.asc

Direct Newton iteration for .op point succeeded.

Date: Mon Jul 08 05:50:43 2024
Total elapsed time: 0.112 seconds.

tnom = 27
temp = 27
method = modified trap
totiter = 2844
traniter = 2824
tranpoints = 1270
accept = 1183
rejected = 87
matrix size = 13
fillins = 0
solver = Normal
Matrix Compiler1: 656 bytes object code size  0.1/0.1/[0.1]
Matrix Compiler2: off  [0.1]/0.1/0.1

