Circuit: * C:\Users\shann\Dropbox\moog\twangilizer\docs\spice\final_output.asc

Direct Newton iteration failed to find .op point.  (Use ".option noopiter" to skip.)
Starting Gmin stepping
Gmin = 10
Gmin = 1.07374
vernier = 0.5
vernier = 0.25
vernier = 0.125
vernier = 0.0625
Gmin = 1.08884
vernier = 0.03125
vernier = 0.015625
Gmin = 1.03122
vernier = 0.0078125
vernier = 0.00390625
Gmin = 1.01922
vernier = 0.00520833
vernier = 0.00260417
Gmin = 1.01294
vernier = 0.00347222
vernier = 0.00173611
vernier = 0.00231481
vernier = 0.00115741
Gmin = 1.01045
vernier = 0.00154321
vernier = 0.000771604
Gmin = 1.00831
vernier = 0.00102881
vernier = 0.000514403
Gmin = 1.00689
vernier = 0.00068587
vernier = 0.000514403
Gmin = 1.00568
vernier = 0.00068587
vernier = 0.000514402
Gmin = 0
Gmin stepping failed

Starting source stepping with srcstepmethod=0
Source Step = 3.0303%
Source Step = 14.2045%
Source Step = 16.0985%
Source Step = 17.9924%
Source Step = 19.4129%
Source Step = 19.8864%
Source Step = 20.3598%
Source Step = 20.8333%
Source Step = 21.3068%
vernier = 0.0234375
Source Step = 21.804%
vernier = 0.00585938
Source Step = 21.9105%
Source Step = 22.0881%
Source Step = 22.2656%
Source Step = 22.4432%
Source Step = 22.6207%
vernier = 0.00878906
Source Step = 22.8782%
Source Step = 23.1445%
Source Step = 23.4109%
Source Step = 23.6772%
Source Step = 23.9435%
vernier = 0.0131836
Source Step = 24.1866%
Source Step = 24.2864%
Source Step = 24.3863%
Source Step = 24.4862%
Source Step = 24.5861%
vernier = 0.00494385
Source Step = 24.6959%
Source Step = 24.8457%
Source Step = 24.9956%
Source Step = 25.0517%
Source Step = 25.0892%
Source Step = 25.1266%
Source Step = 25.1641%
Source Step = 25.2016%
vernier = 0.00185394
Source Step = 25.2502%
Source Step = 25.3064%
Source Step = 25.3626%
Source Step = 25.4188%
Source Step = 25.475%
vernier = 0.00278091
Source Step = 25.5452%
Source Step = 25.6295%
Source Step = 25.7137%
Source Step = 25.798%
Source Step = 25.8823%
vernier = 0.00417137
Source Step = 25.9834%
Source Step = 26.1098%
Source Step = 26.2362%
Source Step = 26.3626%
Source Step = 26.489%
vernier = 0.00625706
Source Step = 26.6344%
Source Step = 26.824%
Source Step = 27.0136%
Source Step = 27.2032%
Source Step = 27.3928%
vernier = 0.00938559
Source Step = 27.6014%
Source Step = 27.8858%
Source Step = 28.1702%
Source Step = 28.4546%
Source Step = 28.739%
vernier = 0.0140784
Source Step = 29.0377%
Source Step = 29.4643%
Source Step = 29.8909%
Source Step = 30.3175%
Source Step = 30.7441%
Source Step = 31.1707%
vernier = 0.0211176
Source Step = 31.8107%
Source Step = 32.4506%
Source Step = 33.0905%
Source Step = 33.7305%
Source Step = 34.3704%
vernier = 0.0316764
Source Step = 35.2983%
Source Step = 36.2582%
Source Step = 37.2181%
Source Step = 38.1779%
Source Step = 39.1378%
vernier = 0.0475145
Source Step = 40.4817%
Source Step = 41.9215%
Source Step = 43.3613%
Source Step = 44.8012%
Source Step = 46.241%
vernier = 0.0712718
Source Step = 48.1848%
Source Step = 50.3445%
Source Step = 52.5043%
Source Step = 54.664%
Source Step = 56.8238%
vernier = 0.106908
Source Step = 59.6315%
Source Step = 62.8711%
Source Step = 66.1107%
Source Step = 69.3504%
Source Step = 72.59%
vernier = 0.160362
Source Step = 76.6395%
Source Step = 81.499%
Source Step = 86.3584%
Source Step = 91.2178%
Source Step = 96.0773%
vernier = 0.240542
Source stepping succeeded in finding the operating point.


Date: Thu Mar 21 12:35:27 2024
Total elapsed time: 0.350 seconds.

tnom = 27
temp = 27
method = trap
totiter = 13030
traniter = 0
tranpoints = 0
accept = 0
rejected = 0
matrix size = 22
fillins = 15
solver = Normal
Matrix Compiler1:      99 opcodes
Matrix Compiler2: off  [0.2]/0.4/0.4

