Circuit: * C:\Users\shann\Dropbox\moog\twangilizer\docs\spice\pll_loop_filt_1.asc


Date: Thu Jul 11 03:38:17 2024
Total elapsed time: 0.041 seconds.

tnom = 27
temp = 27
method = trap
totiter = 0
traniter = 0
tranpoints = 0
accept = 0
rejected = 0
matrix size = 4
fillins = 0
solver = Normal

