Circuit: * C:\Users\shann\Dropbox\moog\twangilizer\docs\spice\VCA.asc


Date: Sat Mar 02 23:12:54 2024
Total elapsed time: 0.083 seconds.

tnom = 27
temp = 27
method = trap
totiter = 2020
traniter = 0
tranpoints = 0
accept = 0
rejected = 0
matrix size = 27
fillins = 7
solver = Normal
Matrix Compiler1: 1.55 KB object code size  0.3/0.2/[0.1]
Matrix Compiler2: 2.34 KB object code size  0.3/0.3/[0.1]

