Circuit: * C:\Users\shann\Dropbox\moog\twangilizer\docs\spice\VCF model.asc

Direct Newton iteration failed to find .op point.  (Use ".option noopiter" to skip.)
Starting Gmin stepping
Gmin = 10
Gmin = 1.07374
vernier = 0.5
vernier = 0.25
vernier = 0.125
vernier = 0.0625
Gmin = 1.08884
vernier = 0.03125
vernier = 0.015625
Gmin = 1.03122
vernier = 0.0078125
vernier = 0.00390625
Gmin = 1.01922
vernier = 0.00520833
vernier = 0.00260417
Gmin = 1.01294
vernier = 0.00347222
vernier = 0.00173611
vernier = 0.00231481
vernier = 0.00115741
Gmin = 1.01045
vernier = 0.00154321
vernier = 0.000771604
Gmin = 1.00831
vernier = 0.00102881
vernier = 0.000514403
Gmin = 1.00689
vernier = 0.00068587
vernier = 0.000514403
Gmin = 1.00568
vernier = 0.00068587
vernier = 0.000514402
Gmin = 0
Gmin stepping failed

Starting source stepping with srcstepmethod=0
Source Step = 3.0303%
Source Step = 13.0682%
Source Step = 14.9621%
Source Step = 16.8561%
Source Step = 18.75%
Source Step = 20.6439%
vernier = 0.09375
Source Step = 22.9167%
Source Step = 25.7576%
Source Step = 28.5985%
Source Step = 31.4394%
Source Step = 34.2803%
vernier = 0.140625
Source Step = 37.5473%
Source Step = 41.8087%
Source Step = 46.0701%
Source Step = 50.3314%
Source Step = 54.5928%
vernier = 0.210938
Source Step = 59.2803%
Source Step = 65.6723%
Source Step = 72.0644%
Source Step = 78.4564%
Source Step = 84.8485%
vernier = 0.316406
Source Step = 91.5601%
Source stepping succeeded in finding the operating point.


Date: Tue Mar 05 07:39:09 2024
Total elapsed time: 0.359 seconds.

tnom = 27
temp = 27
method = trap
totiter = 7187
traniter = 0
tranpoints = 0
accept = 0
rejected = 0
matrix size = 51
fillins = 78
solver = Normal
Matrix Compiler1:     306 opcodes
Matrix Compiler2: off  [0.4]/0.8/0.8

