Circuit: * C:\Users\shann\Dropbox\moog\twangilizer\docs\spice\VCO Pickoff.asc


Date: Tue Feb 20 18:38:24 2024
Total elapsed time: 0.058 seconds.

tnom = 27
temp = 27
method = trap
totiter = 655
traniter = 0
tranpoints = 0
accept = 0
rejected = 0
matrix size = 24
fillins = 8
solver = Normal
Thread vector: 3.9/3.4[2] 0.0/0.0[0] 0.7/1.0[1] 0.1/0.9[1]  2592/500
Matrix Compiler1: 1.39 KB object code size  0.3/0.2/[0.1]
Matrix Compiler2: 2.34 KB object code size  0.2/0.3/[0.1]

