Circuit: * C:\Users\shann\Dropbox\moog\twangilizer\docs\spice\VCO Pickoff.asc

Direct Newton iteration for .op point succeeded.

Date: Fri Mar 08 21:54:31 2024
Total elapsed time: 0.040 seconds.

tnom = 27
temp = 27
method = trap
totiter = 17
traniter = 0
tranpoints = 0
accept = 0
rejected = 0
matrix size = 24
fillins = 14
solver = Normal
Matrix Compiler1:      94 opcodes
Matrix Compiler2: 2.44 KB object code size
